Test_Feeder/Feed1/Generators.txt
New Generator.GEN11 Bus1=134.1 kV=0.213 kW=0 PF=1
New Generator.GEN12 Bus1=147.2 kV=0.213 kW=0 PF=1
New Generator.GEN13 Bus1=170.1 kV=0.213 kW=0 PF=1
New Generator.GEN14 Bus1=173.1 kV=0.213 kW=0 PF=1
New Generator.GEN15 Bus1=174.1 kV=0.213 kW=0 PF=1
New Generator.GEN16 Bus1=183.2 kV=0.213 kW=0 PF=1
New Generator.GEN17 Bus1=1178.2 kV=0.213 kW=0 PF=1
New Generator.GEN18 Bus1=1208.3 kV=0.213 kW=0 PF=1
New Generator.GEN19 Bus1=1225.1 kV=0.213 kW=0 PF=1
New Generator.GEN110 Bus1=1248.2 kV=0.213 kW=0 PF=1
New Generator.GEN111 Bus1=1249.2 kV=0.213 kW=0 PF=1
New Generator.GEN112 Bus1=1264.3 kV=0.213 kW=0 PF=1
New Generator.GEN113 Bus1=1276.2 kV=0.213 kW=0 PF=1
New Generator.GEN114 Bus1=1289.1 kV=0.213 kW=0 PF=1
New Generator.GEN115 Bus1=1314.2 kV=0.213 kW=0 PF=1
New Generator.GEN116 Bus1=1320.3 kV=0.213 kW=0 PF=1
New Generator.GEN117 Bus1=1327.3 kV=0.213 kW=0 PF=1
New Generator.GEN118 Bus1=1337.3 kV=0.213 kW=0 PF=1
New Generator.GEN119 Bus1=1342.3 kV=0.213 kW=0 PF=1
New Generator.GEN120 Bus1=1349.1 kV=0.213 kW=0 PF=1
New Generator.GEN121 Bus1=1387.1 kV=0.213 kW=0 PF=1
New Generator.GEN122 Bus1=1388.1 kV=0.213 kW=0 PF=1
New Generator.GEN123 Bus1=1406.2 kV=0.213 kW=0 PF=1
New Generator.GEN124 Bus1=1458.3 kV=0.213 kW=0 PF=1
New Generator.GEN125 Bus1=1502.1 kV=0.213 kW=0 PF=1
New Generator.GEN126 Bus1=1522.2 kV=0.213 kW=0 PF=1
New Generator.GEN127 Bus1=1539.3 kV=0.213 kW=0 PF=1
New Generator.GEN128 Bus1=1556.3 kV=0.213 kW=0 PF=1
New Generator.GEN129 Bus1=1562.1 kV=0.213 kW=0 PF=1
New Generator.GEN130 Bus1=1563.1 kV=0.213 kW=0 PF=1
New Generator.GEN131 Bus1=1611.1 kV=0.213 kW=0 PF=1
New Generator.GEN132 Bus1=1614.3 kV=0.213 kW=0 PF=1
New Generator.GEN133 Bus1=1619.3 kV=0.213 kW=0 PF=1
New Generator.GEN134 Bus1=1629.1 kV=0.213 kW=0 PF=1
New Generator.GEN135 Bus1=1639.2 kV=0.213 kW=0 PF=1
New Generator.GEN136 Bus1=1676.2 kV=0.213 kW=0 PF=1
New Generator.GEN137 Bus1=1682.2 kV=0.213 kW=0 PF=1
New Generator.GEN138 Bus1=1688.2 kV=0.213 kW=0 PF=1
New Generator.GEN139 Bus1=1701.3 kV=0.213 kW=0 PF=1
New Generator.GEN140 Bus1=1702.2 kV=0.213 kW=0 PF=1
New Generator.GEN141 Bus1=1755.2 kV=0.213 kW=0 PF=1
New Generator.GEN142 Bus1=1778.3 kV=0.213 kW=0 PF=1
New Generator.GEN143 Bus1=1780.3 kV=0.213 kW=0 PF=1
New Generator.GEN144 Bus1=1785.2 kV=0.213 kW=0 PF=1
New Generator.GEN145 Bus1=1813.2 kV=0.213 kW=0 PF=1
New Generator.GEN146 Bus1=1817.1 kV=0.213 kW=0 PF=1
New Generator.GEN147 Bus1=1835.3 kV=0.213 kW=0 PF=1
New Generator.GEN148 Bus1=1860.1 kV=0.213 kW=0 PF=1
New Generator.GEN149 Bus1=1861.1 kV=0.213 kW=0 PF=1
New Generator.GEN150 Bus1=1886.2 kV=0.213 kW=0 PF=1
New Generator.GEN151 Bus1=1896.1 kV=0.213 kW=0 PF=1
New Generator.GEN152 Bus1=1898.1 kV=0.213 kW=0 PF=1
New Generator.GEN153 Bus1=1899.2 kV=0.213 kW=0 PF=1
New Generator.GEN154 Bus1=1900.1 kV=0.213 kW=0 PF=1
New Generator.GEN155 Bus1=1906.1 kV=0.213 kW=0 PF=1
